!MP2 ZORA-DEF2-TZVP def2-TZVP/C DLPNO-CCSD(T)
* xyz 0 1
	La : 4.278527 2.755739 1.126851 newgto "SARC-ZORA-TZVP" end
	O 2.943659 0.355365 0.227743
	N 2.822024 -1.757958 -0.563844
	H 0.331007 -1.472584 0.485679
	H 0.331006 -0.853311 -1.167619
	H 2.292819 -2.581622 -0.872364
	C 0.711176 -0.677006 -0.158952
	H 0.344130 0.273709 0.197156
	H 3.836669 -1.821676 -0.587711
	C 2.202310 -0.727128 -0.177726
*