!MP2 ZORA-DEF2-TZVP def2-TZVP/C DLPNO-CCSD(T)
* xyz 2 1
	La 1.177266 0.024240 -0.004059 newgto "SARC-ZORA-TZVP" end
	H -9.149062 1.598431 1.087642
	H -9.364323 1.331536 -0.634464
	C -8.636978 1.570269 0.130957
	C -7.624937 0.474107 0.167999
	O -6.254883 0.966121 0.204881
	O -7.735501 -0.675513 0.145450
	H -8.177563 2.525038 -0.064795
*