!MP2 ZORA-DEF2-TZVP def2-TZVP/C DLPNO-CCSD(T)
* xyz -1 1
	La : 1.177266 0.024240 -0.004059 newgto "SARC-ZORA-TZVP" end
	H -7.165703 1.347079 1.031884
	H -7.380964 1.080184 -0.690222
	C -6.653619 1.318917 0.075199
	C -5.641578 0.222755 0.112241
	O -4.271524 0.714769 0.149123
	O -5.752142 -0.926865 0.089692
	H -6.194204 2.273686 -0.120553
*