!MP2 ZORA-DEF2-TZVP def2-TZVP/C DLPNO-CCSD(T)
* xyz 3 1
	La 4.278527 2.755739 1.126851 newgto "SARC-ZORA-TZVP" end
	O 1.465602 -2.302495 -0.767811
	N 1.343966 -4.415817 -1.559398
	H -1.147051 -4.130444 -0.509875
	H -1.147051 -3.511170 -2.163173
	H 0.814762 -5.239482 -1.867918
	C -0.766882 -3.334866 -1.154506
	H -1.133927 -2.384151 -0.798398
	H 2.358612 -4.479535 -1.583265
	C 0.724253 -3.384987 -1.173280
*