!MP2 ZORA-DEF2-TZVP def2-TZVP/C DLPNO-CCSD(T)
* xyz 3 1
	La 1.177266 0.024240 -0.004059 newgto "SARC-ZORA-TZVP" end
	H : -7.661543 1.409917 1.045823
	H : -7.876804 1.143022 -0.676283
	C : -7.149459 1.381755 0.089138
	C : -6.137418 0.285593 0.126180
	O : -4.767364 0.777607 0.163062
	O : -6.247982 -0.864027 0.103631
	H : -6.690044 2.336524 -0.106614
*