!MP2 ZORA-DEF2-TZVP def2-TZVP/C DLPNO-CCSD(T)
* xyz 3 1
	La 4.278527 2.755739 1.126851 newgto "SARC-ZORA-TZVP" end
	O 3.451741 1.269004 0.569965
	N 3.330106 -0.844318 -0.221622
	H 0.839089 -0.558945 0.827900
	H 0.839089 0.060329 -0.825397
	H 2.800901 -1.667983 -0.530142
	C 1.219258 0.236633 0.183270
	H 0.852213 1.187348 0.539378
	H 4.344752 -0.908036 -0.245489
	C 2.710392 0.186512 0.164496
*