!MP2 ZORA-DEF2-TZVP def2-TZVP/C DLPNO-CCSD(T)
* xyz -1 1
	La : 0.976930 -0.001413 -0.000054 newgto "SARC-ZORA-TZVP" end
	H -2.964696 -0.396631 0.955618
	H -2.985477 -0.690541 -0.767494
	C -2.639294 -0.003869 -0.004214
	C -1.163778 0.007581 -0.004104
	O -0.468190 1.072450 0.000749
	O -0.468926 -1.062250 0.000578
	H -3.029249 0.990013 -0.153931
*