!MP2 ZORA-DEF2-TZVP def2-TZVP/C DLPNO-CCSD(T)
* xyz 3 1
	La 1.177266 0.024240 -0.004059 newgto "SARC-ZORA-TZVP" end
	H : -8.653223 1.535593 1.073702
	H : -8.868484 1.268698 -0.648404
	C : -8.141139 1.507431 0.117017
	C : -7.129098 0.411269 0.154059
	O : -5.759044 0.903283 0.190941
	O : -7.239662 -0.738351 0.131510
	H : -7.681724 2.462200 -0.078735
*