!MP2 ZORA-DEF2-TZVP def2-TZVP/C DLPNO-CCSD(T)
* xyz -1 1
	La : 1.177266 0.024240 -0.004059 newgto "SARC-ZORA-TZVP" end
	H -2.703145 0.781536 0.906428
	H -2.918406 0.514641 -0.815678
	C -2.191061 0.753374 -0.050257
	C -1.179020 -0.342788 -0.013215
	O 0.191034 0.149226 0.023667
	O -1.289584 -1.492408 -0.035764
	H -1.731646 1.708143 -0.246009
*