!MP2 ZORA-DEF2-TZVP def2-TZVP/C DLPNO-CCSD(T)
* xyz 2 1
	La 1.177266 0.024240 -0.004059 newgto "SARC-ZORA-TZVP" end
	H -4.587337 1.020321 0.959398
	H -4.802598 0.753426 -0.762708
	C -4.075253 0.992159 0.002713
	C -3.063212 -0.104003 0.039755
	O -1.693158 0.388011 0.076637
	O -3.173776 -1.253623 0.017206
	H -3.615838 1.946928 -0.193039
*