!MP2 ZORA-DEF2-TZVP CCSD(T)
* xyz 2 1
	La 0.976930 -0.001413 -0.000054 newgto "SARC-ZORA-TZVP" end
	H -3.405293 -0.394646 0.955837
	H -3.426074 -0.688556 -0.767275
	C -3.079891 -0.001884 -0.003995
	C -1.604375 0.009566 -0.003885
	O -0.908787 1.074435 0.000968
	O -0.909523 -1.060265 0.000797
	H -3.469846 0.991998 -0.153712
*