!MP2 ZORA-DEF2-TZVP def2-TZVP/C DLPNO-CCSD(T)
* xyz 2 1
	La 1.177266 0.024240 -0.004059 newgto "SARC-ZORA-TZVP" end
	H -4.190665 0.970050 0.948247
	H -4.405926 0.703155 -0.773859
	C -3.678581 0.941888 -0.008438
	C -2.666540 -0.154274 0.028604
	O -1.296486 0.337740 0.065486
	O -2.777104 -1.303894 0.006055
	H -3.219166 1.896657 -0.204190
*