!MP2 ZORA-DEF2-TZVP def2-TZVP/C DLPNO-CCSD(T)
* xyz 0 1
	La : 4.278527 2.755739 1.126851 newgto "SARC-ZORA-TZVP" end
	O 3.359363 1.102888 0.507743
	N 3.237727 -1.010435 -0.283844
	H 0.746711 -0.725061 0.765678
	H 0.746710 -0.105788 -0.887619
	H 2.708523 -1.834099 -0.592364
	C 1.126880 0.070517 0.121048
	H 0.759834 1.021232 0.477156
	H 4.252373 -1.074153 -0.307711
	C 2.618014 0.020396 0.102274
*