!MP2 ZORA-DEF2-TZVP def2-TZVP/C DLPNO-CCSD(T)
* xyz 2 1
	La 0.976930 -0.001413 -0.000054 newgto "SARC-ZORA-TZVP" end
	H -2.700337 -0.397822 0.955487
	H -2.721118 -0.691732 -0.767625
	C -2.374935 -0.005060 -0.004345
	C -0.899419 0.006390 -0.004235
	O -0.203831 1.071259 0.000618
	O -0.204567 -1.063441 0.000447
	H -2.764890 0.988822 -0.154062
*