!MP2 ZORA-DEF2-TZVP def2-TZVP/C DLPNO-CCSD(T)
* xyz 0 1
	La : 4.278527 2.755739 1.126851 newgto "SARC-ZORA-TZVP" end
	O 2.620334 -0.226042 0.009966
	N 2.498699 -2.339364 -0.781621
	H 0.007682 -2.053991 0.267901
	H 0.007681 -1.434717 -1.385396
	H 1.969494 -3.163029 -1.090141
	C 0.387851 -1.258413 -0.376729
	H 0.020805 -0.307698 -0.020621
	H 3.513344 -2.403083 -0.805488
	C 1.878985 -1.308534 -0.395503
*