!MP2 ZORA-DEF2-TZVP def2-TZVP/C DLPNO-CCSD(T)
* xyz 3 1
	La 1.177266 0.024240 -0.004059 newgto "SARC-ZORA-TZVP" end
	H : -3.397321 0.869509 0.925943
	H : -3.612582 0.602614 -0.796163
	C : -2.885237 0.841347 -0.030742
	C : -1.873196 -0.254815 0.006300
	O : -0.503142 0.237199 0.043182
	O : -1.983760 -1.404435 -0.016249
	H : -2.425822 1.796116 -0.226494
*