!MP2 ZORA-DEF2-TZVP def2-TZVP/C DLPNO-CCSD(T)
* xyz -1 1
	La : 1.177266 0.024240 -0.004059 newgto "SARC-ZORA-TZVP" end
	H -6.669864 1.284240 1.017944
	H -6.885125 1.017345 -0.704162
	C -6.157780 1.256078 0.061259
	C -5.145739 0.159916 0.098301
	O -3.775685 0.651930 0.135183
	O -5.256303 -0.989704 0.075752
	H -5.698365 2.210847 -0.134493
*