!MP2 ZORA-DEF2-TZVP CCSD(T)
* xyz 2 1
	La 0.976930 -0.001413 -0.000054 newgto "SARC-ZORA-TZVP" end
	H -2.612218 -0.398219 0.955443
	H -2.632999 -0.692129 -0.767669
	C -2.286816 -0.005457 -0.004389
	C -0.811300 0.005993 -0.004279
	O -0.115712 1.070862 0.000574
	O -0.116448 -1.063838 0.000403
	H -2.676771 0.988425 -0.154106
*