!MP2 ZORA-DEF2-TZVP def2-TZVP/C DLPNO-CCSD(T)
* xyz -1 1
	La : 1.177266 0.024240 -0.004059 newgto "SARC-ZORA-TZVP" end
	H -2.901481 0.806671 0.912004
	H -3.116742 0.539776 -0.810102
	C -2.389397 0.778509 -0.044681
	C -1.377356 -0.317653 -0.007639
	O -0.007302 0.174361 0.029243
	O -1.487920 -1.467273 -0.030188
	H -1.929982 1.733278 -0.240433
*