!MP2 ZORA-DEF2-TZVP def2-TZVP/C DLPNO-CCSD(T)
* xyz -1 1
	La : 1.177266 0.024240 -0.004059 newgto "SARC-ZORA-TZVP" end
	H -3.793993 0.919780 0.937095
	H -4.009254 0.652885 -0.785011
	C -3.281909 0.891618 -0.019590
	C -2.269868 -0.204544 0.017452
	O -0.899814 0.287470 0.054334
	O -2.380432 -1.354164 -0.005097
	H -2.822494 1.846387 -0.215342
*