!MP2 ZORA-DEF2-TZVP def2-TZVP/C DLPNO-CCSD(T)
* xyz 2 1
	La 0.976930 -0.001413 -0.000054 newgto "SARC-ZORA-TZVP" end
	H -5.255803 -0.386308 0.956756
	H -5.276584 -0.680218 -0.766356
	C -4.930401 0.006454 -0.003076
	C -3.454885 0.017904 -0.002966
	O -2.759297 1.082773 0.001887
	O -2.760033 -1.051927 0.001716
	H -5.320356 1.000336 -0.152793
*