!MP2 ZORA-DEF2-TZVP def2-TZVP/C DLPNO-CCSD(T)
* xyz -1 1
	La : 1.177266 0.024240 -0.004059 newgto "SARC-ZORA-TZVP" end
	H -8.157383 1.472755 1.059763
	H -8.372644 1.205860 -0.662343
	C -7.645299 1.444593 0.103078
	C -6.633258 0.348431 0.140120
	O -5.263204 0.840445 0.177002
	O -6.743822 -0.801189 0.117571
	H -7.185884 2.399362 -0.092674
*