!MP2 ZORA-DEF2-TZVP def2-TZVP/C DLPNO-CCSD(T)
* xyz -1 1
	La : 0.976930 -0.001413 -0.000054 newgto "SARC-ZORA-TZVP" end
	H -5.696401 -0.384323 0.956975
	H -5.717182 -0.678233 -0.766137
	C -5.370999 0.008439 -0.002857
	C -3.895483 0.019889 -0.002747
	O -3.199895 1.084758 0.002106
	O -3.200631 -1.049942 0.001935
	H -5.760954 1.002321 -0.152574
*