!MP2 ZORA-DEF2-TZVP def2-TZVP/C DLPNO-CCSD(T)
* xyz -1 1
	La : 0.976930 -0.001413 -0.000054 newgto "SARC-ZORA-TZVP" end
	H -8.780584 -0.370427 0.958507
	H -8.801365 -0.664337 -0.764605
	C -8.455182 0.022335 -0.001325
	C -6.979666 0.033785 -0.001215
	O -6.284078 1.098654 0.003638
	O -6.284814 -1.036046 0.003467
	H -8.845137 1.016217 -0.151042
*