!MP2 ZORA-DEF2-TZVP def2-TZVP/C DLPNO-CCSD(T)
* xyz -1 1
	La : 0.976930 -0.001413 -0.000054 newgto "SARC-ZORA-TZVP" end
	H -7.458791 -0.376383 0.957850
	H -7.479572 -0.670293 -0.765262
	C -7.133389 0.016379 -0.001982
	C -5.657873 0.027829 -0.001872
	O -4.962285 1.092698 0.002981
	O -4.963021 -1.042002 0.002810
	H -7.523344 1.010261 -0.151699
*