!MP2 ZORA-DEF2-TZVP def2-TZVP/C DLPNO-CCSD(T)
* xyz 2 1
	La 1.177266 0.024240 -0.004059 newgto "SARC-ZORA-TZVP" end
	H -2.802313 0.794103 0.909216
	H -3.017574 0.527208 -0.812890
	C -2.290229 0.765941 -0.047469
	C -1.278188 -0.330221 -0.010427
	O 0.091866 0.161793 0.026455
	O -1.388752 -1.479841 -0.032976
	H -1.830814 1.720710 -0.243221
*