!MP2 ZORA-DEF2-TZVP def2-TZVP/C DLPNO-CCSD(T)
* xyz 3 1
	La 1.177266 0.024240 -0.004059 newgto "SARC-ZORA-TZVP" end
	H : -3.694825 0.907212 0.934307
	H : -3.910086 0.640317 -0.787799
	C : -3.182741 0.879050 -0.022378
	C : -2.170700 -0.217112 0.014664
	O : -0.800646 0.274902 0.051546
	O : -2.281264 -1.366732 -0.007885
	H : -2.723326 1.833819 -0.218130
*