!MP2 ZORA-DEF2-TZVP def2-TZVP/C DLPNO-CCSD(T)
* xyz -1 1
	La : 0.976930 -0.001413 -0.000054 newgto "SARC-ZORA-TZVP" end
	H -4.022130 -0.391867 0.956144
	H -4.042911 -0.685777 -0.766968
	C -3.696728 0.000895 -0.003688
	C -2.221212 0.012345 -0.003578
	O -1.525624 1.077214 0.001275
	O -1.526360 -1.057486 0.001104
	H -4.086683 0.994777 -0.153405
*