!MP2 ZORA-DEF2-TZVP def2-TZVP/C DLPNO-CCSD(T)
* xyz -1 1
	La : 0.976930 -0.001413 -0.000054 newgto "SARC-ZORA-TZVP" end
	H -2.788457 -0.397425 0.955531
	H -2.809238 -0.691335 -0.767581
	C -2.463055 -0.004663 -0.004301
	C -0.987539 0.006787 -0.004191
	O -0.291951 1.071656 0.000662
	O -0.292687 -1.063044 0.000491
	H -2.853010 0.989219 -0.154018
*