!MP2 ZORA-DEF2-TZVP def2-TZVP/C DLPNO-CCSD(T)
* xyz 2 1
	La 0.976930 -0.001413 -0.000054 newgto "SARC-ZORA-TZVP" end
	H -3.052815 -0.396234 0.955662
	H -3.073596 -0.690144 -0.767450
	C -2.727413 -0.003472 -0.004170
	C -1.251897 0.007978 -0.004060
	O -0.556309 1.072847 0.000793
	O -0.557045 -1.061853 0.000622
	H -3.117368 0.990410 -0.153887
*