!MP2 ZORA-DEF2-TZVP def2-TZVP/C DLPNO-CCSD(T)
* xyz -1 1
	La : 0.976930 -0.001413 -0.000054 newgto "SARC-ZORA-TZVP" end
	H -4.374608 -0.390279 0.956319
	H -4.395389 -0.684189 -0.766793
	C -4.049206 0.002483 -0.003513
	C -2.573690 0.013933 -0.003403
	O -1.878102 1.078802 0.001450
	O -1.878838 -1.055898 0.001279
	H -4.439161 0.996365 -0.153230
*